<?xml version="1.0"?>
<routes>
 <vType id="vtype0" accel="2.6" decel="4.5" sigma="0.5" length="2.5" minGap="2.5" maxSpeed="14" color="1,1,0"/>
 <route id="route4m" edges="-gneE5.2309"/>
 <route id="route1m" edges="gneE5.0"/> 
 <flow id="flow0" type="vtype0" route="route4m" begin="0" period="1" number="1" /> 
 <flow id="flow2" type="vtype0" route="route1m" begin="0" period="1" number="1" /> 
</routes>
