<?xml version="1.0" encoding="UTF-8"?>

<!-- generated on 2022-01-22 11:35:33 by Eclipse SUMO polyconvert Version 1.11.0
<configuration xmlns:xsi="http://www.w3.org/2001/XMLSchema-instance" xsi:noNamespaceSchemaLocation="http://sumo.dlr.de/xsd/polyconvertConfiguration.xsd">

    <input>
        <net-file value="tancredoneves.net.xml"/>
        <osm-files value="tancredoneves.osm"/>
        <type-file value="osmPolyconvert.typ.xml"/>
    </input>

    <output>
        <output-file value="tancredoneves.poly.xml"/>
    </output>

    <processing>
        <poi-layer-offset value="5"/>
    </processing>

</configuration>
-->

<additional xmlns:xsi="http://www.w3.org/2001/XMLSchema-instance" xsi:noNamespaceSchemaLocation="http://sumo.dlr.de/xsd/additional_file.xsd">
    <location netOffset="-556584.94,1435965.23" convBoundary="-1590.29,-1132.93,15765.09,40095.69" origBoundary="-38.492872,-12.999075,-38.333305,-12.626038" projParameter="+proj=utm +zone=24 +ellps=WGS84 +datum=WGS84 +units=m +no_defs"/>

    <poly id="1000784942" type="building" color="255,230,230" fill="1" layer="-1.00" shape="1725.868034,873.897002 1734.803850,868.359674 1740.277527,877.095880 1738.403699,878.249977 1741.069775,882.491049 1742.791955,881.425744 1748.439747,890.438058 1740.067141,895.620311 1734.179913,886.210373 1735.967095,885.111754 1733.932174,881.875729 1731.733426,883.240633 1725.868034,873.897002"/>
    <poly id="1000784943" type="building" color="255,230,230" fill="1" layer="-1.00" shape="1832.433701,857.702819 1843.595530,853.454668 1836.376246,834.702625 1833.786255,835.681296 1833.459118,834.841495 1826.144324,837.621717 1825.399846,839.448041 1832.433701,857.702819"/>
    <poly id="1000788104" type="building" color="255,230,230" fill="1" layer="-1.00" shape="1979.560066,784.633886 2002.919082,773.447902 1999.518114,765.326665 1987.437696,771.091923 1986.903463,769.765962 1977.842363,772.439333 1979.714696,775.708863 1975.629554,777.398496 1979.560066,784.633886"/>
    <poly id="1000826118" type="leisure" color="207,245,201" fill="1" layer="-2.00" shape="1926.349135,808.689452 1939.923657,806.824923 1938.668238,797.825471 1925.093721,799.689999 1926.349135,808.689452"/>
    <poly id="100264515" type="building" color="255,230,230" fill="1" layer="-1.00" shape="2240.471074,1122.599439 2261.087657,1142.616812 2281.628078,1121.726704 2261.000649,1101.709370 2240.471074,1122.599439"/>
    <poly id="100264517" type="building" color="255,230,230" fill="1" layer="-1.00" shape="2397.501110,851.737226 2383.210015,832.889797 2367.411741,844.723540 2380.900271,863.572687 2397.501110,851.737226"/>
    <poly id="100264519" type="building" color="255,230,230" fill="1" layer="-1.00" shape="2191.771610,891.501315 2164.860000,894.710328 2162.433067,870.330157 2188.552939,867.122827 2191.771610,891.501315"/>
    <poly id="100264520" type="building" color="255,230,230" fill="1" layer="-1.00" shape="2221.011551,866.268646 2192.513179,867.899609 2194.148423,892.281461 2222.646821,890.650497 2221.011551,866.268646"/>
    <poly id="100264521" type="building" color="255,230,230" fill="1" layer="-1.00" shape="2283.576252,880.291226 2227.382926,889.070035 2225.776078,878.058583 2281.969406,869.290834 2283.576252,880.291226"/>
    <poly id="100264524" type="building" color="255,230,230" fill="1" layer="-1.00" shape="1178.905125,466.090513 1172.653458,468.989993 1135.567006,471.091241 1134.006964,419.935144 1140.991278,419.920565 1140.682758,412.401027 1168.313938,411.193187 1168.937597,429.395149 1174.166213,429.970360 1178.905125,466.090513"/>
    <poly id="100264525" type="parking" color="184,184,179" fill="1" layer="-1.00" shape="1046.582259,632.772697 1018.107050,645.417260 1057.872705,731.860710 1086.337142,719.216132 1046.582259,632.772697"/>
    <poly id="100264527" type="building" color="255,230,230" fill="1" layer="-1.00" shape="685.157025,918.692922 673.206417,882.532353 724.622701,865.914671 735.781635,902.065802 685.157025,918.692922"/>
    <poly id="102235079" type="forest" color="140,196,107" fill="1" layer="-4.00" shape="141.418607,679.554953 192.371008,722.304310 218.909486,722.249820 239.855895,692.535299 287.441920,706.725815 288.410308,639.694771 326.002304,640.712291 334.548567,661.861775 353.419450,640.788569 424.912018,672.436141 462.236366,648.825463 471.846559,581.079843 429.452651,570.749622 400.997950,546.069112 435.192461,529.951908 460.989737,522.920427 369.114670,504.851256 357.044671,494.701761 310.480970,455.394109 247.825694,433.194673 218.109968,417.474429 193.749137,411.010664 122.229048,428.940414 106.580301,408.236736 106.656888,445.594130 61.384703,475.347338 84.660598,502.770387 57.088130,537.983666 73.756050,579.708579 72.723686,610.465973 37.355848,620.436274 36.380085,684.160638 86.052754,642.310908 128.028637,618.049733 156.815931,641.059913 141.418607,679.554953"/>
    <poly id="102235082" type="building" color="255,230,230" fill="1" layer="-1.00" shape="775.641015,908.452741 732.435247,920.110096 740.802750,949.012252 784.017687,936.525436 775.641015,908.452741"/>
    <poly id="102235083" type="building" color="255,230,230" fill="1" layer="-1.00" shape="898.699730,911.503960 927.135174,900.441068 943.563588,894.058993 958.619601,936.992218 973.568537,933.654452 980.275760,956.776099 998.549092,950.954167 999.858161,954.611999 1017.709852,949.432358 1021.492670,958.769408 974.523610,975.676984 982.560435,996.683579 985.746967,995.703748 1020.136261,984.462486 1027.691042,1003.125547 1000.454928,1012.051640 997.615686,1002.723683 989.346765,1005.693669 985.402594,1007.416035 988.711109,1018.147520 953.011486,1030.364665 932.692815,975.763988 927.059036,978.584708 898.699730,911.503960"/>
    <poly id="102235084" type="building" color="255,230,230" fill="1" layer="-1.00" shape="967.365281,923.393469 958.371342,895.852942 981.857747,888.328135 990.851708,915.868655 967.365281,923.393469"/>
    <poly id="102235087" type="parking" color="184,184,179" fill="1" layer="-1.00" shape="1162.632828,796.415267 1203.566653,818.746551 1214.274081,768.283673 1162.114674,776.797526 1162.632828,796.415267"/>
    <poly id="102235088" type="parking" color="184,184,179" fill="1" layer="-1.00" shape="924.941485,721.686591 962.387915,709.996665 992.863544,798.638166 967.632588,806.874399 960.658484,785.777115 959.348782,781.809629 977.405047,775.966038 972.320349,761.190622 944.173682,770.229156 937.749404,747.538216 955.014470,741.950644 952.069759,734.038464 931.629752,740.948668 924.941485,721.686591"/>
    <poly id="102235090" type="forest" color="140,196,107" fill="1" layer="-4.00" shape="855.895679,677.892328 842.576024,635.353573 853.859123,605.924037 889.691946,574.552382 939.066997,578.010752 934.684301,593.082343 897.353389,602.880895 909.472743,652.300874 936.119852,647.136169 967.254832,640.966782 974.199217,626.951527 975.817084,617.448405 977.347842,607.779577 977.777610,595.414624 1059.830512,614.884660 1040.337669,628.682788 1034.023539,622.447558 1005.684809,622.506583 1016.467301,660.029729 1017.849177,719.480501 1038.736152,765.752449 1053.805896,747.573088 1091.611020,751.873680 1123.198586,796.243209 1096.157788,820.707016 1064.081174,838.291480 1076.119277,874.562310 1118.912452,857.574790 1129.897042,877.491407 1042.849313,928.456211 1037.395014,923.712166 1016.592230,865.839062 1007.159284,846.239886 917.442470,875.854757 891.592455,883.716194 871.414417,870.608863 875.128812,841.814354 854.930028,818.698586 835.925699,764.924546 855.434309,758.624598 886.412453,838.716487 992.863544,798.638166 962.387915,709.996665 965.527848,697.062060 930.231546,683.986229 905.010587,670.900471 855.895679,677.892328"/>
    <poly id="102235105" type="building" color="255,230,230" fill="1" layer="-1.00" shape="487.298126,1178.879518 449.448295,1189.939227 440.438282,1159.644879 478.298919,1148.585158 487.298126,1178.879518"/>
    <poly id="102235106" type="parking" color="184,184,179" fill="1" layer="-1.00" shape="428.437106,1204.093909 488.367408,1187.249032 494.721535,1207.617797 434.793357,1225.513294 428.437106,1204.093909"/>
    <poly id="102442481" type="building" color="255,230,230" fill="1" layer="-1.00" shape="765.589710,716.078739 878.795653,685.729887 890.442725,732.297609 780.834270,761.201358 765.589710,716.078739"/>
    <poly id="102442481#1" type="shop" color="237,199,255" fill="1" layer="-1.00" shape="765.589710,716.078739 878.795653,685.729887 890.442725,732.297609 780.834270,761.201358 765.589710,716.078739"/>
    <poly id="102442482" type="parking" color="184,184,179" fill="1" layer="-1.00" shape="2129.388580,1075.480325 2130.987744,1087.995835 2085.016238,1114.845329 2091.388093,1096.993485 2129.388580,1075.480325"/>
    <poly id="102442484" type="parking" color="184,184,179" fill="1" layer="-1.00" shape="2148.602181,1124.365012 2195.748814,1175.899836 2242.658300,1156.623651 2186.555344,1090.786392 2148.602181,1124.365012"/>
    <poly id="102514527" type="building" color="255,230,230" fill="1" layer="-1.00" shape="2240.156453,933.832252 2255.628049,951.925222 2203.364040,998.031154 2212.732563,1007.300891 2192.194263,1024.065900 2169.700748,998.567152 2240.156453,933.832252"/>
    <poly id="102514528" type="parking" color="184,184,179" fill="1" layer="-1.00" shape="2169.700748,998.567152 2161.779637,1012.053962 2161.866457,1052.939282 2178.697643,1052.439054 2221.169370,1017.037089 2212.732563,1007.300891 2192.194263,1024.065900 2169.700748,998.567152"/>
    <poly id="102514530" type="parking" color="184,184,179" fill="1" layer="-1.00" shape="2240.156453,933.832252 2251.820161,920.801939 2308.850269,912.784379 2324.300150,925.756991 2273.432399,970.466643 2255.628049,951.925222 2240.156453,933.832252"/>
    <poly id="116425036" type="building" color="255,230,230" fill="1" layer="-1.00" shape="2356.655264,978.097180 2382.268489,955.946499 2425.158314,1004.880068 2399.545098,1027.041847 2356.655264,978.097180"/>
    <poly id="116425037" type="building" color="255,230,230" fill="1" layer="-1.00" shape="1652.138403,1207.683090 1668.055167,1184.923146 1554.190130,1103.546546 1541.008103,1121.954456 1537.666094,1126.362995 1652.138403,1207.683090"/>
    <poly id="120479888" type="building" color="255,230,230" fill="1" layer="-1.00" shape="2079.920149,1018.288060 2095.069171,1027.501341 2120.573685,984.670622 2122.873561,969.636421 2121.607581,919.917379 2102.983557,918.806751 2105.410980,963.889563 2104.266654,976.609959 2079.920149,1018.288060"/>
    <poly id="155228930" type="parking" color="184,184,179" fill="1" layer="-1.00" shape="1178.593259,534.856591 1177.820151,533.376288 1136.183136,511.676816 1104.652787,504.996564 1091.237323,546.673076 1129.929628,560.471513 1113.687244,609.121160 1036.546040,583.868205 1031.055310,598.046336 1130.809642,628.770612 1149.921917,619.717563 1159.992649,591.551155 1163.312940,561.164901 1172.307441,557.762037 1183.595385,572.369637 1193.426660,569.772331 1178.593259,534.856591"/>
    <poly id="160179636" type="building" color="255,230,230" fill="1" layer="-1.00" shape="2566.083504,750.661912 2589.313319,775.517345 2547.478288,814.114640 2524.259327,789.259149 2566.083504,750.661912"/>
    <poly id="179157329" type="forest" color="140,196,107" fill="1" layer="-4.00" shape="2263.273990,1512.793505 2312.485533,1652.553274 2321.326918,1643.344345 2332.016958,1616.049846 2349.981947,1582.480400 2356.356511,1576.107841 2369.192350,1588.798469 2390.682835,1570.825877 2412.174775,1558.637175 2443.293864,1554.821784 2471.524783,1559.671799 2537.625858,1588.439169 2556.682345,1588.685990 2571.940711,1582.869468 2582.539180,1573.745167 2604.752171,1493.043603 2600.119000,1481.939110 2550.547777,1473.872401 2539.464902,1469.461380 2483.360982,1474.933795 2382.390729,1491.671427 2345.908033,1497.809527 2347.033412,1506.787122 2263.273990,1512.793505"/>
    <poly id="180417310" type="forest" color="140,196,107" fill="1" layer="-4.00" shape="1614.254235,583.664891 1610.576711,567.747530 1636.856406,558.148216 1640.717995,532.704160 1656.957425,534.605306 1690.384680,525.267363 1743.310305,510.093291 1825.625738,535.576667 1863.834280,494.765267 1881.483165,563.150626 1866.907583,563.402618 1852.883434,547.462912 1797.004242,566.060690 1792.372443,601.625476 1819.743780,667.302980 1788.037564,669.968804 1767.074541,660.192559 1754.414793,648.386030 1778.155247,617.536349 1750.727918,556.094561 1708.745801,540.711405 1664.792273,552.205949 1641.613722,571.807245 1654.127265,591.477150 1614.254235,583.664891"/>
    <poly id="229722050" type="building" color="255,230,230" fill="1" layer="-1.00" shape="1905.646302,1132.355663 1893.720531,1134.404687 1853.980984,1118.309195 1850.041789,1112.102303 1842.636196,1107.871250 1833.993411,1087.850417 1819.222120,1052.039069 1800.566474,1005.143639 1849.790336,987.920224 1865.014997,1022.713162 1966.632698,1066.624087 1974.415395,1064.550622 1976.909463,1125.845932 1905.646302,1132.355663"/>
    <poly id="229722050#1" type="shop" color="237,199,255" fill="1" layer="-1.00" shape="1905.646302,1132.355663 1893.720531,1134.404687 1853.980984,1118.309195 1850.041789,1112.102303 1842.636196,1107.871250 1833.993411,1087.850417 1819.222120,1052.039069 1800.566474,1005.143639 1849.790336,987.920224 1865.014997,1022.713162 1966.632698,1066.624087 1974.415395,1064.550622 1976.909463,1125.845932 1905.646302,1132.355663"/>
    <poly id="248013802" type="building" color="255,230,230" fill="1" layer="-1.00" shape="1889.124150,560.801000 1910.762617,556.641254 1908.701367,546.084171 1887.062932,550.254975 1889.124150,560.801000"/>
    <poly id="248013803" type="building" color="255,230,230" fill="1" layer="-1.00" shape="1880.655706,535.980161 1907.390001,531.135037 1905.766097,522.246953 1879.020942,527.081039 1880.655706,535.980161"/>
    <poly id="248013809" type="tourism" color="207,245,201" fill="1" layer="-2.00" shape="1872.352908,368.905728 1867.947560,367.875485 1863.447714,368.316302 1859.330489,370.193993 1856.050938,373.297473 1853.966228,377.283156 1853.303245,381.741376 1854.136829,386.163255 1856.368370,390.073461 1859.758385,393.052254 1863.926592,394.768665 1868.427962,395.046686 1872.785257,393.865210 1876.510702,391.346918 1879.214428,387.758052 1880.604457,383.497358 1880.529893,379.007520 1878.991811,374.797253 1876.164647,371.297495 1872.352908,368.905728"/>
    <poly id="250119996" type="building" color="255,230,230" fill="1" layer="-1.00" shape="2415.093168,765.648779 2418.307056,752.105574 2416.947824,750.438547 2425.402980,748.440929 2425.677039,749.811674 2437.613091,752.672634 2436.483225,756.844330 2439.434863,757.634287 2435.033728,773.867393 2423.889119,770.883093 2425.824989,768.324308 2415.093168,765.648779"/>
    <poly id="250119996#1" type="tourism" color="207,245,201" fill="1" layer="-2.00" shape="2415.093168,765.648779 2418.307056,752.105574 2416.947824,750.438547 2425.402980,748.440929 2425.677039,749.811674 2437.613091,752.672634 2436.483225,756.844330 2439.434863,757.634287 2435.033728,773.867393 2423.889119,770.883093 2425.824989,768.324308 2415.093168,765.648779"/>
    <poly id="250120144" type="building" color="255,230,230" fill="1" layer="-1.00" shape="2482.130244,649.584100 2485.883560,670.278741 2544.841646,656.284630 2541.089044,635.943885 2482.130244,649.584100"/>
    <poly id="251260009" type="building" color="255,230,230" fill="1" layer="-1.00" shape="348.097755,2055.133005 383.411945,2102.570107 419.380946,2151.919037 579.317321,2174.094492 594.478064,2083.909660 565.379744,2079.247519 547.467268,2076.387013 540.691708,2067.387853 463.909460,1965.349335 457.884364,1957.343927 458.402135,1950.707419 478.385132,1953.110290 481.582414,1936.238620 449.967501,1931.316134 451.664639,1918.041756 370.284205,1905.469266 366.560565,1930.116527 352.371997,2023.959769 348.097755,2055.133005"/>
    <poly id="251260009#1" type="shop" color="237,199,255" fill="1" layer="-1.00" shape="348.097755,2055.133005 383.411945,2102.570107 419.380946,2151.919037 579.317321,2174.094492 594.478064,2083.909660 565.379744,2079.247519 547.467268,2076.387013 540.691708,2067.387853 463.909460,1965.349335 457.884364,1957.343927 458.402135,1950.707419 478.385132,1953.110290 481.582414,1936.238620 449.967501,1931.316134 451.664639,1918.041756 370.284205,1905.469266 366.560565,1930.116527 352.371997,2023.959769 348.097755,2055.133005"/>
    <poly id="253552330" type="residential" color="235,235,227" fill="1" layer="-3.00" shape="2096.969657,2363.856476 1909.562187,2143.613086 1882.665529,2097.995855 1866.138744,2119.684449 1836.795616,2101.952307 1822.721443,2098.631098 1765.449282,2137.104779 1771.865582,2093.805984 1785.301848,2062.071252 1824.536040,2028.236164 1880.427193,1993.348407 1908.455065,1978.945560 1873.039759,1931.057087 1886.255390,1907.926734 1895.630510,1863.759034 1872.591909,1852.516363 1864.526436,1818.371860 1814.522580,1790.464722 1778.027720,1729.340684 1774.030459,1716.199853 1782.408362,1672.266534 1769.695280,1671.386495 1771.696405,1653.422311 1761.211252,1649.551616 1778.971735,1621.534667 1838.277367,1611.799189 1919.092355,1705.774546 2190.931953,1742.047539 2225.281222,1732.143039 2302.155117,1726.549578 2614.121725,1659.839128 2634.210651,1655.969702 2674.430143,1647.423401 2711.690635,1644.833181 2720.937477,1657.874175 2744.571089,1673.372631 2781.720828,1694.979885 2849.694631,1716.708924 2867.784558,1746.607084 2863.855069,1785.466176 2852.554315,1816.046763 2828.247651,1855.933853 2795.259873,1898.847618 2766.935827,1936.752623 2744.317723,1985.284227 2718.142985,2089.937324 2692.977222,2199.896590 2684.669912,2220.495364 2644.017935,2275.700917 2423.775322,2421.609335 2304.981500,2499.563409 2240.220050,2535.565683 2177.412825,2541.881049 2147.772589,2501.987425 2108.146402,2494.307952 2073.313158,2450.289158 2104.803105,2426.500689 2111.579574,2415.172876 2096.969657,2363.856476"/>
    <poly id="253552378" type="residential" color="235,235,227" fill="1" layer="-3.00" shape="1218.602390,1853.845497 1195.535645,1844.559790 1084.870141,1821.013547 923.722298,1747.485239 890.776431,1801.444549 829.709870,1778.236632 824.617152,1791.009368 795.853975,1790.936300 768.016292,1787.366617 739.246367,1773.558135 836.597716,1611.318770 838.073316,1590.690530 848.119823,1581.866659 862.307110,1551.048742 880.254426,1534.268038 864.236157,1518.984472 840.456267,1547.378241 829.112399,1537.271662 786.209754,1528.203718 830.230769,1407.192471 829.430184,1355.880009 976.588760,1389.680489 1040.086510,1393.242066 1077.579340,1408.602444 1131.178636,1434.667554 1190.438117,1371.772535 1264.070756,1424.447951 1361.926308,1468.789216 1341.593319,1516.684449 1422.613450,1549.083756 1439.131985,1549.336665 1456.245333,1559.121249 1463.811878,1562.500519 1487.583391,1571.751342 1500.635693,1574.090596 1502.469306,1574.418520 1509.923088,1575.741024 1511.561410,1576.036180 1517.734939,1577.140188 1518.592026,1577.271098 1519.557592,1577.412839 1526.685401,1578.448487 1700.867139,1603.971538 1656.274625,1663.098836 1651.342841,1695.468110 1654.151082,1715.700335 1709.747621,1829.525100 1713.592963,1847.786618 1706.745165,1871.600199 1765.410299,1892.190276 1793.810626,1915.564610 1803.106716,1916.131136 1823.792596,1907.195989 1840.919516,1938.656138 1880.427193,1993.348407 1824.536040,2028.236164 1785.301848,2062.071252 1771.865582,2093.805984 1765.449282,2137.104779 1580.916937,2034.057440 1579.911586,2051.123722 1567.121096,2049.613378 1536.983994,2025.523622 1346.245994,1905.268814 1218.602390,1853.845497"/>
    <poly id="367169235" type="water" color="181,209,209" fill="0" layer="-4.00" shape="2282.039642,1187.726563 2665.006395,923.702252 2712.941792,882.470696 2759.321499,849.182832 2807.600403,806.424204 2830.299080,760.601773 2847.424166,715.255778 2878.873191,628.274573 2896.464528,588.003670 2921.320302,551.897470 2929.515446,539.991282 2943.321785,519.944559 2960.451608,481.997014 2967.605108,434.626453 2976.997418,384.408870 2995.075733,353.857804 3014.091652,325.605002 3059.149732,293.613333 3103.277872,257.918786 3126.468884,224.580744 3154.286288,174.124215 3168.618402,131.559840 3170.814340,73.760093 3166.046892,20.609169 3106.615587,-135.074492 3096.260518,-179.366060 3101.443362,-230.094415 3127.289584,-339.370207 3126.741445,-367.193795 3108.842607,-424.563075 3084.490233,-462.244237 3039.690963,-532.063364 3012.291634,-569.616360 2986.947627,-609.617879 2965.436179,-662.743808 2956.048755,-696.011559 2968.040949,-747.351769 3006.907762,-828.288882 3017.606928,-850.551876 3067.935783,-951.840513 3117.092748,-1033.187110 3158.718169,-1091.790995 3189.929825,-1121.574420 3219.955862,-1132.930793 3265.749467,-1129.535292 3306.252091,-1115.577975 3351.201914,-1066.252176 3386.113120,-1040.316850 3435.509409,-1021.004282 3468.558891,-1018.432975 3479.421725,-1025.069959 3494.313425,-1049.133858 3513.555528,-1097.338281"/>
    <poly id="368650876" type="building" color="255,230,230" fill="1" layer="-1.00" shape="2552.336798,311.887792 2551.724893,294.537349 2575.568500,292.174988 2577.352931,310.097997 2552.336798,311.887792"/>
    <poly id="368650877" type="building" color="255,230,230" fill="1" layer="-1.00" shape="2555.877154,334.418697 2552.943442,321.706989 2569.807439,316.473132 2568.660674,312.726545 2582.773844,309.301200 2588.782486,324.682632 2555.877154,334.418697"/>
    <poly id="368650878" type="building" color="255,230,230" fill="1" layer="-1.00" shape="2579.647373,373.771475 2563.427405,365.755139 2553.345331,387.917052 2572.581505,386.360807 2579.647373,373.771475"/>
    <poly id="368650879" type="building" color="255,230,230" fill="1" layer="-1.00" shape="2576.745307,345.444231 2596.525661,359.999935 2608.145384,346.881070 2589.877987,329.811717 2576.745307,345.444231"/>
    <poly id="368650880" type="building" color="255,230,230" fill="1" layer="-1.00" shape="2589.078080,381.724918 2575.052889,385.736209 2579.437850,407.634935 2586.126514,406.293529 2586.113735,400.321634 2593.787893,398.314571 2589.078080,381.724918"/>
    <poly id="368650884" type="building" color="255,230,230" fill="1" layer="-1.00" shape="2579.418042,484.551121 2590.556681,489.857781 2596.683908,479.548633 2586.300346,472.327133 2579.418042,484.551121"/>
    <poly id="368650885" type="building" color="255,230,230" fill="1" layer="-1.00" shape="2578.619853,522.076403 2563.474641,514.599662 2569.848605,503.018195 2585.581941,511.654882 2578.619853,522.076403"/>
    <poly id="368650886" type="building" color="255,230,230" fill="1" layer="-1.00" shape="2541.988803,534.297653 2553.014171,522.131171 2565.262762,534.247883 2553.069793,548.142088 2541.988803,534.297653"/>
    <poly id="368650887" type="building" color="255,230,230" fill="1" layer="-1.00" shape="2535.592550,535.461475 2550.631331,548.954617 2538.238760,560.803306 2524.283301,546.743827 2535.592550,535.461475"/>
    <poly id="368650888" type="building" color="255,230,230" fill="1" layer="-1.00" shape="2514.113213,537.918271 2529.279391,555.204428 2515.053411,566.802665 2500.478386,552.092011 2514.113213,537.918271"/>
    <poly id="368650892" type="building" color="255,230,230" fill="1" layer="-1.00" shape="2585.115860,552.331301 2595.861725,541.326607 2616.828721,552.849565 2604.926745,565.880559 2585.115860,552.331301"/>
    <poly id="368680015" type="building" color="255,230,230" fill="1" layer="-1.00" shape="2569.731918,565.082192 2581.629878,555.236247 2587.763939,563.318395 2589.788908,561.865318 2598.830740,570.516315 2586.345287,579.500914 2578.466386,572.008632 2576.441393,573.450648 2569.731918,565.082192"/>
    <poly id="368680016" type="building" color="255,230,230" fill="1" layer="-1.00" shape="2536.311302,582.505406 2567.405764,567.697119 2576.752445,587.041634 2562.224963,594.581845 2559.306078,588.815230 2544.193559,596.644220 2536.311302,582.505406"/>
    <poly id="368680017" type="building" color="255,230,230" fill="1" layer="-1.00" shape="2498.812507,594.717390 2514.509101,591.222349 2518.914946,607.679953 2501.467595,614.076223 2498.812507,594.717390"/>
    <poly id="368680018" type="building" color="255,230,230" fill="1" layer="-1.00" shape="2492.986458,588.658383 2497.379626,604.264465 2486.045929,609.198920 2488.681261,619.312379 2482.871270,620.773532 2475.245062,594.480191 2492.986458,588.658383"/>
    <poly id="368680019" type="building" color="255,230,230" fill="1" layer="-1.00" shape="2455.195452,601.169526 2464.557506,627.746702 2479.380924,621.643597 2471.766816,595.936362 2455.195452,601.169526"/>
    <poly id="368680020" type="building" color="255,230,230" fill="1" layer="-1.00" shape="2428.161728,613.082591 2435.757049,624.921750 2448.540303,618.236882 2452.916169,625.747737 2459.893748,622.547817 2450.251247,601.766213 2428.161728,613.082591"/>
    <poly id="368680029" type="building" color="255,230,230" fill="1" layer="-1.00" shape="2557.389484,397.529832 2562.371177,389.125309 2575.437163,398.066300 2570.074659,405.896567 2557.389484,397.529832"/>
    <poly id="368680030" type="building" color="255,230,230" fill="1" layer="-1.00" shape="2554.347604,410.309615 2554.938721,417.939140 2557.053541,417.934617 2556.692312,426.517263 2563.405913,426.690909 2563.767565,418.307326 2569.342013,418.295402 2568.552816,409.328148 2554.347604,410.309615"/>
    <poly id="368680031" type="building" color="255,230,230" fill="1" layer="-1.00" shape="2554.415720,442.159720 2554.587283,431.100238 2574.734463,429.530986 2574.759353,441.165121 2563.438556,441.952417 2563.828737,446.906066 2557.311575,447.307074 2557.485324,442.341160 2554.415720,442.159720"/>
    <poly id="368680032" type="building" color="255,230,230" fill="1" layer="-1.00" shape="2553.119441,464.855795 2554.069981,457.986052 2565.591297,459.675573 2567.491342,450.525621 2576.126592,451.646237 2573.278475,468.816076 2553.119441,464.855795"/>
    <poly id="368680033" type="building" color="255,230,230" fill="1" layer="-1.00" shape="2554.130738,486.396786 2559.282556,471.323255 2575.800052,476.441471 2570.456694,493.229578 2554.130738,486.396786"/>
    <poly id="368680034" type="building" color="255,230,230" fill="1" layer="-1.00" shape="2539.584254,505.316857 2545.895849,494.996268 2563.949870,503.539531 2557.639486,514.424137 2539.584254,505.316857"/>
    <poly id="368680035" type="building" color="255,230,230" fill="1" layer="-1.00" shape="2531.163099,518.108136 2537.289526,507.411935 2549.384606,513.678711 2543.660260,524.750064 2531.163099,518.108136"/>
    <poly id="368985141" type="building" color="255,230,230" fill="1" layer="-1.00" shape="2511.595298,369.603943 2526.407774,368.599080 2525.384666,351.669763 2510.572223,352.685684 2511.595298,369.603943"/>
    <poly id="368985142" type="building" color="255,230,230" fill="1" layer="-1.00" shape="2511.381004,386.049303 2511.352169,372.557246 2528.387891,371.536571 2529.403648,385.026520 2511.381004,386.049303"/>
    <poly id="368985143" type="building" color="255,230,230" fill="1" layer="-1.00" shape="2513.397306,405.918222 2512.626269,390.215928 2532.133670,388.703368 2532.904718,404.405662 2513.397306,405.918222"/>
    <poly id="368985144" type="building" color="255,230,230" fill="1" layer="-1.00" shape="2510.719040,421.384587 2509.949732,411.565738 2514.645715,411.555702 2514.638388,408.127393 2525.006423,408.105232 2526.976306,406.254149 2531.933549,411.773109 2528.979611,414.964449 2530.338929,416.675705 2524.420749,423.312766 2521.584636,420.742055 2510.719040,421.384587"/>
    <poly id="368985145" type="building" color="255,230,230" fill="1" layer="-1.00" shape="2521.428708,439.122635 2530.972517,439.102235 2530.748294,425.533181 2520.456950,425.920130 2521.428708,439.122635"/>
    <poly id="368985146" type="building" color="255,230,230" fill="1" layer="-1.00" shape="2514.529641,463.810263 2519.588966,440.973439 2532.641200,443.478076 2529.581029,468.002674 2514.529641,463.810263"/>
    <poly id="374614561" type="building" color="255,230,230" fill="1" layer="-1.00" shape="2344.427367,1204.868078 2367.430605,1240.385158 2419.095607,1320.154952 2454.913240,1297.252557 2462.711432,1292.259319 2454.343580,1279.338021 2514.443824,1240.912031 2534.892365,1227.829658 2552.368056,1254.809714 2635.440151,1201.681024 2612.926247,1166.915125 2649.339224,1143.635178 2664.834535,1167.556033 2695.864596,1147.715874 2688.258395,1135.976335 2775.164960,1080.870457 2751.475861,1044.337728 2744.709198,1034.664457 2700.336907,967.354290 2605.197574,1026.945442 2570.484173,1048.684488 2510.566892,1086.214447 2399.161554,1157.451652 2404.852504,1166.231508 2371.710224,1187.425043 2344.427367,1204.868078"/>
    <poly id="374614561#1" type="shop" color="237,199,255" fill="1" layer="-1.00" shape="2344.427367,1204.868078 2367.430605,1240.385158 2419.095607,1320.154952 2454.913240,1297.252557 2462.711432,1292.259319 2454.343580,1279.338021 2514.443824,1240.912031 2534.892365,1227.829658 2552.368056,1254.809714 2635.440151,1201.681024 2612.926247,1166.915125 2649.339224,1143.635178 2664.834535,1167.556033 2695.864596,1147.715874 2688.258395,1135.976335 2775.164960,1080.870457 2751.475861,1044.337728 2744.709198,1034.664457 2700.336907,967.354290 2605.197574,1026.945442 2570.484173,1048.684488 2510.566892,1086.214447 2399.161554,1157.451652 2404.852504,1166.231508 2371.710224,1187.425043 2344.427367,1204.868078"/>
    <poly id="378504969" type="building" color="255,230,230" fill="1" layer="-1.00" shape="1380.916074,686.683795 1377.181643,669.428377 1385.290342,667.697223 1384.293776,663.098730 1375.686427,664.941519 1373.923275,656.805722 1361.012264,659.575430 1358.000636,645.658342 1399.844921,636.712311 1402.758012,650.176179 1397.175162,651.371207 1399.945895,664.182887 1421.984618,659.469736 1425.795758,677.089938 1380.916074,686.683795"/>
    <poly id="378504970" type="building" color="255,230,230" fill="1" layer="-1.00" shape="1463.715944,632.873531 1476.193471,630.270571 1480.136923,648.907926 1467.659411,651.521947 1463.715944,632.873531"/>