<?xml version="1.0" encoding="UTF-8"?>

<!-- generated on 11/28/21 19:56:03 by Eclipse SUMO duarouter Version 1.8.0
<configuration xmlns:xsi="http://www.w3.org/2001/XMLSchema-instance" xsi:noNamespaceSchemaLocation="http://sumo.dlr.de/xsd/duarouterConfiguration.xsd">

    <input>
        <net-file value="tancredoneves.net.xml"/>
        <route-files value="myflow.xml"/>
    </input>

    <output>
        <output-file value="tancredoneves.rou.xml"/>
        <alternatives-output value="tancredoneves.rou.alt.xml"/>
    </output>

</configuration>
-->

<routes xmlns:xsi="http://www.w3.org/2001/XMLSchema-instance" xsi:noNamespaceSchemaLocation="http://sumo.dlr.de/xsd/routes_file.xsd">
    <vType id="vtype0" accel="2.0" decel="5.0" sigma="0.1" length="1.5" minGap="1.0" maxSpeed="16" color="1,1,0"/>
	<vehicle id="flow1.0" type="vtype0" depart="0.00" departLane="0" color="red">
        <route edges="59287948#0 59287948#1 59287948#2 59287948#3 59287948#4 59287948#5 59287948#6 59287948#7 59287948#8 392287070#0 392287070#1 392287070#2 392287070#3 392287070#4 392287070#5 392274542#0 392274542#1 175176073#0 175176073#1 392274540 178988006 981834893 178988007 981828557 31266228 577355573#0 577355573#1 577355573#2 108894646 663499015#0 663499015#1 663499015#2 663499015#3 492586235 29201441#3 29201440 29201443#0 29201443#1"/>
    </vehicle>
    <vehicle id="flow2.0" type="vtype0" depart="0.00" departLane="0" color="blue">
        <route edges="394040558#0 394040558#1 444803671 979393072 68830839#0 68830839#1 68830839#2 68830839#3 68830839#4 979393075#0 979393075#1 979393074#0 979393074#1 663499013 553523954#0 553523954#1 553523954#2 553523954#3 553523954#4 978832271 179160600#0 179160600#1 179160600#2 399512896 53541867#0 53541867#1 53541867#2 59288006 979393076 778605157#1 76691914 76691913#0 76691913#1"/>
    </vehicle>
    <vehicle id="flow1.1" type="vtype0" depart="3.00" departLane="0" color="red">
        <route edges="59287948#0 59287948#1 59287948#2 59287948#3 59287948#4 59287948#5 59287948#6 59287948#7 59287948#8 392287070#0 392287070#1 392287070#2 392287070#3 392287070#4 392287070#5 392274542#0 392274542#1 175176073#0 175176073#1 392274540 178988006 981834893 178988007 981828557 31266228 577355573#0 577355573#1 577355573#2 108894646 663499015#0 663499015#1 663499015#2 663499015#3 492586235 29201441#3 29201440 29201443#0 29201443#1"/>
    </vehicle>
    <vehicle id="flow2.1" type="vtype0" depart="3.00" departLane="0" color="blue">
        <route edges="394040558#0 394040558#1 444803671 979393072 68830839#0 68830839#1 68830839#2 68830839#3 68830839#4 979393075#0 979393075#1 979393074#0 979393074#1 663499013 553523954#0 553523954#1 553523954#2 553523954#3 553523954#4 978832271 179160600#0 179160600#1 179160600#2 399512896 53541867#0 53541867#1 53541867#2 59288006 979393076 778605157#1 76691914 76691913#0 76691913#1"/>
    </vehicle>
    <vehicle id="flow1.2" type="vtype0" depart="7.00" departLane="0" color="red">
        <route edges="59287948#0 59287948#1 59287948#2 59287948#3 59287948#4 59287948#5 59287948#6 59287948#7 59287948#8 392287070#0 392287070#1 392287070#2 392287070#3 392287070#4 392287070#5 392274542#0 392274542#1 175176073#0 175176073#1 392274540 178988006 981834893 178988007 981828557 31266228 577355573#0 577355573#1 577355573#2 108894646 663499015#0 663499015#1 663499015#2 663499015#3 492586235 29201441#3 29201440 29201443#0 29201443#1"/>
    </vehicle>
    <vehicle id="flow2.2" type="vtype0" depart="7.00" departLane="0" color="blue">
        <route edges="394040558#0 394040558#1 444803671 979393072 68830839#0 68830839#1 68830839#2 68830839#3 68830839#4 979393075#0 979393075#1 979393074#0 979393074#1 663499013 553523954#0 553523954#1 553523954#2 553523954#3 553523954#4 978832271 179160600#0 179160600#1 179160600#2 399512896 53541867#0 53541867#1 53541867#2 59288006 979393076 778605157#1 76691914 76691913#0 76691913#1"/>
    </vehicle>
</routes>
